print ""

Starting deforming run. T = 303.15 K
print ""

units                  real
boundary               p p p
atom_style             full

pair_style      lj/class2/coul/long 6.0
pair_modify     tail yes mix sixthpower
#suffix          off
kspace_style    pppm 1.0e-4
#suffix          on
special_bonds   lj/coul 0.0 0.0 1.0 dihedral yes
bond_style      class2
angle_style     class2
dihedral_style  class2
improper_style  class2

read_data ../mol_data/DIPE.mol.lmp
Reading data file ...
  orthogonal box = (-4.7778067 -2.6499418 -1.1216526) to (1.7131361 2.9952824 4.7428849)
  reading atoms ...
  21 atoms
  scanning bonds ...
  scanning angles ...
  scanning dihedrals ...
  scanning impropers ...
  reading bonds ...
  20 bonds
  reading angles ...
  37 angles
  reading dihedrals ...
  42 dihedrals
  reading impropers ...
  24 impropers
Finding 1-2 1-3 1-4 neighbors ...
     4 = max # of 1-2 neighbors
     7 = max # of 1-3 neighbors
    11 = max # of special neighbors
replicate 10 10 5
Replicating atoms ...
  orthogonal box = (-4.7778067 -2.6499418 -1.1216526) to (60.131622 53.8023 28.201035)
  10500 atoms
  10000 bonds
  18500 angles
  21000 dihedrals
  12000 impropers
Finding 1-2 1-3 1-4 neighbors ...
     4 = max # of 1-2 neighbors
     7 = max # of 1-3 neighbors
    11 = max # of special neighbors
  replicate CPU = 0.002 seconds

neighbor        2.0 bin
neigh_modify    delay 0 every 1 check yes

velocity        all create 303.15 873436 loop geom mom yes rot yes

timestep  1

thermo_style custom step time etotal temp vol density press
thermo    1000

variable E equal etotal
variable Pres equal press
variable Temp equal temp
variable Dens equal density
fix data1 all ave/time 1 500 500 v_E v_Temp v_Pres v_Dens file data.txt

# Compression run

variable Lx equal "v_n_repl_x/v_rho^(1.0/3.0)*v_koef1"
variable Ly equal "v_n_repl_y/v_rho^(1.0/3.0)*v_koef1"
variable Lz equal "v_n_repl_z/v_rho^(1.0/3.0)*v_koef1"
fix def1 all deform 1 x final 0 61.9676402808313 y final 0 61.9676402808313 z final 0 30.9838201404157
fix lang1 all langevin 303.15 303.15 100 873436
fix nve1 all nve

run 100000

CITE-CITE-CITE-CITE-CITE-CITE-CITE-CITE-CITE-CITE-CITE-CITE-CITE

Your simulation uses code contributions which should be cited:

- GPU package (short-range, long-range and three-body potentials):

@Article{Brown11,
 author = {W. M. Brown, P. Wang, S. J. Plimpton, A. N. Tharrington},
 title = {Implementing Molecular Dynamics on Hybrid High Performance Computers - Short Range Forces},
 journal = {Comp.~Phys.~Comm.},
 year =    2011,
 volume =  182,
 pages =   {898--911}
}

@Article{Brown12,
 author = {W. M. Brown, A. Kohlmeyer, S. J. Plimpton, A. N. Tharrington},
 title = {Implementing Molecular Dynamics on Hybrid High Performance Computers - Particle-Particle Particle-Mesh},
 journal = {Comp.~Phys.~Comm.},
 year =    2012,
 volume =  183,
 pages =   {449--459}
}

@Article{Brown13,
 author = {W. M. Brown, Y. Masako},
 title = {Implementing Molecular Dynamics on Hybrid High Performance Computers â€“ Three-Body Potentials},
 journal = {Comp.~Phys.~Comm.},
 year =    2013,
 volume =  184,
 pages =   {2785--2793}
}

@Article{Trung15,
 author = {T. D. Nguyen, S. J. Plimpton},
 title = {Accelerating dissipative particle dynamics simulations for soft matter systems},
 journal = {Comput.~Mater.~Sci.},
 year =    2015,
 volume =  100,
 pages =   {173--180}
}

@Article{Trung17,
 author = {T. D. Nguyen},
 title = {GPU-accelerated Tersoff potentials for massively parallel Molecular Dynamics simulations},
 journal = {Comp.~Phys.~Comm.},
 year =    2017,
 volume =  212,
 pages =   {113--122}
}

@Article{Nikolskiy19,
 author = {V. Nikolskiy, V. Stegailov},
 title = {GPU acceleration of four-site water models in LAMMPS},
 journal = {Proceeding of the International Conference on Parallel Computing (ParCo 2019), Prague, Czech Republic},
 year =    2019
}

CITE-CITE-CITE-CITE-CITE-CITE-CITE-CITE-CITE-CITE-CITE-CITE-CITE

PPPM initialization ...
  G vector (1/distance) = 0.32746283
  grid = 24 24 15
  stencil order = 5
  estimated absolute RMS force accuracy = 0.031945709
  estimated relative force accuracy = 9.6203553e-05
  3d grid and FFT values/proc = 6358 2304
Generated 6 of 6 mixed pair_coeff terms from sixthpower/sixthpower mixing rule
Step          Time          TotEng          Temp          Volume        Density         Press
0   0             -11695.442      303.15         107446.62      0.78955648     7323.9306
Averages over the last 51 of 101 rows, steps 50000 to 100000:
TotEng Temp Volume Density Press
-4489.82 303 116128 0.730683 -2.00452
Loop time of 494.599 on 4 procs for 100000 steps with 10500 atoms

unfix def1
unfix lang1
unfix nve1
unfix data1

write_data rst.lmp
System init for write_data ...
PPPM initialization ...
  G vector (1/distance) = 0.32656047
  grid = 24 24 15
  stencil order = 5
  estimated absolute RMS force accuracy = 0.031010178
  estimated relative force accuracy = 9.3386231e-05
  3d grid and FFT values/proc = 5780 2304
Generated 6 of 6 mixed pair_coeff terms from sixthpower/sixthpower mixing rule
